*EXP.DETAILS: ADAM2017

*GENERAL
@PEOPLE
-99
@ADDRESS
-99
@SITE
-99

*TREATMENTS                        -------------FACTOR LEVELS------------
@N R O C TNAME.................... CU FL SA IC MP MI MF MR MC MT ME MH SM
 1 1 1 0 Sim                        1  1  0  1  1  1  1  1  0  1  0  1  1

*CULTIVARS
@C CR INGENO CNAME
 1 MZ PC0002 2600-2650 GDD

*FIELDS
@L ID_FIELD WSTA....  FLSA  FLOB  FLDT  FLDD  FLDS  FLST SLTX  SLDP  ID_SOIL    FLNAME
 1 ADAM0001 ADAM1741   -99   -99   -99   -99   -99   -99  -99   -99  IB00000005 -99
@L ...........XCRD ...........YCRD .....ELEV .............AREA .SLEN .FLWR .SLAS FLHST FHDUR
 1             -99             -99       -99               -99   -99   -99   -99   -99   -99

*INITIAL CONDITIONS
@C   PCR ICDAT  ICRT  ICND  ICRN  ICRE  ICWD ICRES ICREN ICREP ICRIP ICRID ICNAME
 1    MZ 17060   200   -99     1     1   -99   -99   -99   -99   -99   -99 -99
@C  ICBL  SH2O  SNH4  SNO3
 1   10  0.21  0.1  0.9
 1   20  0.21  0.1  0.9
 1   41  0.24  0.1  0.9
 1   71  0.31  0.1  0.9
 1  101  0.32  0.1  0.9
 1  126  0.28  0.1  0.9
 1  151  0.28  0.1  0.9

*PLANTING DETAILS
@P PDATE EDATE  PPOP  PPOE  PLME  PLDS  PLRS  PLRD  PLDP  PLWT  PAGE  PENV  PLPH  SPRL                        PLNAME
 1 17121  -99   10.0   10.0    S     R    75    0    5    -99   -99   -99   -99   -99                      -99

*IRRIGATION AND WATER MANAGEMENT
@I  EFIR  IDEP  ITHR  IEPT  IOFF  IAME  IAMT IRNAME
 1     1    30    50   100 GS000 IR004    10 -99
@I IDATE  IROP IRVAL
