*EXP.DETAILS: UNME2015MZ                                                             

*FILES
@N  EXP.DATA    AFILE        ADIR
  1 EXP         UNME2015.MZA                                                                                 
@N  SPECIES     SPFILE       SPDIR
  1 SPE         MZCER046.SPE C:\DSGT\DSSAT46\GENOTYPE\                                                       
@N  ECOTYPE     EFILE        EDIR
  1 ECO         MZCER046.ECO C:\DSGT\DSSAT46\GENOTYPE\                                                       
@N  CULTIVAR    CFILE        CDIR
  1 CUL         MZCER046.CUL C:\DSGT\DSSAT46\GENOTYPE\                                                       
@N  SOIL        SFILE        SDIR
  1 SOIL        SOIL.SOL     C:\DSGT\DSSAT46\SOIL\                                                           
@N  WEATHER     WFILE        WDIR
  1 WEATH       UNME1501.WTH C:\DSGT\DSSAT46\Weather\                                                        

*SIMULATION CONTROL
@N  GENERAL     NYERS NREPS START   SDATE RSEED SNAME.................... MODEL...
  1 GE              1     1     S 2015091  2150 DEFAULT                   MZCER046
@N  OPTIONS     WATER NITRO SYMBI PHOSP POTAS DISES  CHEM  TILL   CO2
  1 OP              Y     Y     N     N     N     N     N     Y     D
@N  METHODS     WTHER INCON LIGHT EVAPO INFIL PHOTO HYDRO NSWIT SOMDY MESEV MESOL METMP
  1 ME              M     M     E     R     S     C     R     1     G     S     2     D
@N  MANAGEMENT  PLANT IRRIG FERTI RESID HARVS
  1 MA              R     F     R     R     R
@N  OUTPUTS     FNAME OVVEW SUMRY FROPT GROUT CAOUT WAOUT NIOUT MIOUT DIOUT  LONG CHOUT OPOUT
  1 OU              N     Y     Y     1     Y     Y     Y     Y     Y     Y     Y     Y     Y

!AUTOMATIC MANAGEM
@N  PLANTING      PFRST   PLAST PH2OL PH2OU PH2OD PSTMX PSTMN
  1 PL          2015001 2015001   40.  100.   30.   40.   10.
@N  IRRIGATION  IMDEP ITHRL ITHRU IROFF IMETH IRAMT IREFF
  1 IR            30.   50.  100. GS000 IR004  25.0 1.000
@N  NITROGEN    NMDEP NMTHR NAMNT NCODE NAOFF
  1 NI            30.   50.   25. FE001 GS000
@N  RESIDUES    RIPCN RTIME RIDEP
  1 RE           100.     1   20.
@N  HARVEST     HFRST   HLAST HPCNP HRCNR
  1 HA              0 2000001  100.    0.

*TREATMENTS
@N   R O C TNAME....................  CU  FL  SA  IC  MP  MI  MF  MR  MC  MT  ME  MH  SM
  1  1 1 0 Sim                         1   1   0   1   1   1   1   1   0   1   0   1   1

*CULTIVARS
@C  CR INGENO CNAME
  1 MZ PC0002 2600-2650 GDD   

*FIELDS
@L  ID_FIELD WSTA....  FLSA  FLOB  FLDT  FLDD  FLDS  FLST SLTX   SLDP ID_SOIL
  1 UNME0001 UNME1501   0.0  -99.   -99  -99.  100.   -99 SIL    -99. IB00000005
@L             XCRD            YCRD      ELEV              AREA  SLEN  FLWR  SLAS PRMGT
  1       -99.00000       -99.00000    -99.00               1.0  100.   1.0 -99.0   -99   -99

*INITIAL CONDITIONS
@C  PCR     ICDAT  ICRT  ICND  ICRN  ICRE  ICWD ICRES ICREN ICREP ICRIP ICRID
  1 MZ    2015060   200     0  1.00  1.00   0.0     0  0.00  0.00  100.    0.
@C   ICBL  SH2O  SNH4  SNO3
  1    5. 0.210   0.1   0.9
  1   15. 0.210   0.1   0.9
  1   30. 0.230   0.1   0.9
  1   45. 0.259   0.1   0.9
  1   60. 0.310   0.1   0.9
  1   90. 0.316   0.1   0.9
  1  120. 0.295   0.1   0.9
  1  150. 0.280   0.1   0.9

*PLANTING DETAILS
@P    PDATE   EDATE  PPOP  PPOE  PLME  PLDS  PLRS  PLRD  PLDP  PLWT  PAGE  PENV  PLPH  SPRL
  1 2015121     -99  10.0  10.0     S     R   75.    0.   5.0  -99.  -99. -99.0 -99.0 -99.0

*IRRIGATION
@I   IEFF  IDEP  ITHR  IEPT  IOFF  IAME  IAMT
  1 1.000   30.   50.  100. GS000 IR004  10.0
@I    IDATE  IROP IRVAL
  1 2015182 IR004   0.0

*FERTILIZERS
@F    FDATE  FMCD  FACD  FDEP  FAMN  FAMP  FAMK  FAMC  FAMO  FOCD
  1 2015121 FE004 AP003    0.  300.    0.    0.  -99.  -99.   -99

*RESIDUES
@R    RDATE  RCOD  RAMT  RESN  RESP  RESK  RINP  RDEP  RMET
  1 2015121 RE003     0  1.00  0.00  0.00    0.  -99. AP004

*CHEMICALS
@C    CDATE CHCOD CHAMT  CHME CHDEP   CHT

*TILLAGE
@T    TDATE TIMPL  TDEP
  1 2015105 TI011  10.0

*ENVIRONMENT
@E    ODATE  EDAY  ERAD  EMAX  EMIN ERAIN  ECO2  EDEW EWIND

*HARVEST
@H    HDATE  HSTG  HCOM HSIZE   HPC  HBPC
  1 2015288 GS000     H   -99  100.    0.
