*MODEL INPUT FILE            B     1     1     1   999     0
*FILES              
MODEL          MZCER046
FILEX          UNME2015.MZX                                                                                 
FILEA          UNME2015.MZA                                                                                 
FILET          UNME2015.MZT                                                                                 
SPECIES        MZCER046.SPE C:\DSGT\DSSAT46\GENOTYPE\                                                       
ECOTYPE        MZCER046.ECO C:\DSGT\DSSAT46\GENOTYPE\                                                       
CULTIVAR       MZCER046.CUL C:\DSGT\DSSAT46\GENOTYPE\                                                       
PESTS          MZCER046.PST C:\DSGT\DSSAT46\PEST\                                                           
SOILS          SOIL.SOL     C:\DSGT\DSSAT46\SOIL\                                                           
WEATHER        UNME1501.WTH C:\DSGT\DSSAT46\Weather\                                                        
OUTPUT         OVERVIEW
*SIMULATION CONTROL 
                   1     1     S 2015091  2150 DEFAULT                  
                   Y     Y     N     N     N     N     N     Y     D
                   M     M     E     R     S     C     R     1     G     S     2     D
                   R     F     R     R     R
                   N     Y     Y     1     Y     Y     Y     Y     Y     Y     Y     Y     Y
!AUTOMATIC MANAGEM  
               2015001 2015001   40.  100.   30.   40.   10.
                 30.   50.  100. GS000 IR004  25.0 1.000
                 30.   50.   25. FE001 GS000
                100.     1   20.
                     0 2000001  100.    0.
*EXP.DETAILS        
  1UNME2015 MZ                                                             
*TREATMENTS         
  1 1 1 0 Sim                      
*CULTIVARS          
   MZ PC0002 2600-2650 GDD   
*FIELDS             
   UNME0001 UNME1501   0.0  -99.   -99  -99. 100.0   -99 SIL    -99. IB00000005
         -99.00000       -99.00000    -99.00               1.0  100.   1.0 -99.0   -99   -99
*INITIAL CONDITIONS 
   MZ    2015060   200     0  1.00  1.00   0.0     0  0.00  0.00  100.    0.
      5. 0.210 0.100 0.900
     15. 0.210 0.100 0.900
     30. 0.230 0.100 0.900
     45. 0.259 0.100 0.900
     60. 0.310 0.100 0.900
     90. 0.316 0.100 0.900
    120. 0.295 0.100 0.900
    150. 0.280 0.100 0.900
*PLANTING DETAILS   
   2015121     -99  10.0  10.0     S     R   75.    0.   5.0  -99.  -99. -99.0 -99.0 -99.0
*IRRIGATION         
   1.000   30.   50.  100. GS000 IR004  10.0
   2015182 IR004   0.0
*FERTILIZERS        
   2015121 FE004 AP003    5.  150.    0.    0.  -99.  -99.   -99
*RESIDUES           
   2015121 RE003     0  1.00  0.00  0.00    0.  -99. AP004
*CHEMICALS          
*TILLAGE            
   2015105 TI011  10.0
*ENVIRONMENT        
*HARVEST            
   2015288 GS000     H   -99  100.    0.
*SOIL               
 IB00000005  IBSNAT      SIL    -99. DEFAULT - MEDIUM SILTY LOAM                       
 Mead        US           -0.009  -0.099 Generic                                           
 -99    0.12   6.0  0.30   79.  1.00  1.00 IB001 IB001 IB001 -99  
    5.       0.230 0.354 0.450 1.000  -99.  1.37 1.160  16.3  48.6   0.0 0.120  6.50-99.00-99.00-99.00
   15.       0.230 0.354 0.450 1.000  -99.  1.37 1.160  16.3  48.6   0.0 0.120  6.50-99.00-99.00-99.00
   30.       0.230 0.354 0.451 0.638  -99.  1.37 1.100  16.3  48.6   0.0 0.110  6.50-99.00-99.00-99.00
   45.       0.186 0.300 0.452 0.472  -99.  1.37 0.970  19.3  43.2   0.0 0.100  6.50-99.00-99.00-99.00
   60.       0.186 0.300 0.452 0.350  -99.  1.37 0.970  19.3  43.2   0.0 0.100  6.50-99.00-99.00-99.00
   90.       0.188 0.298 0.450 0.223  -99.  1.38 0.720  24.6  40.9   0.0 0.070  6.50-99.00-99.00-99.00
  120.       0.194 0.320 0.452 0.122  -99.  1.38 0.430  27.6  42.7   0.0 0.040  6.50-99.00-99.00-99.00
  150.       0.194 0.320 0.450 0.067  -99.  1.39 0.200  10.0  42.7   0.0 0.020  6.50-99.00-99.00-99.00
                    
    5.-99.00 -99.0 -99.0 -99.0 -99.0 -99.0 -99.0 -99.0 -99.0 -99.0-99.00 -99.0 -99.0 -99.0 -99.0 -99.0  -99.
   15.-99.00 -99.0 -99.0 -99.0 -99.0 -99.0 -99.0 -99.0 -99.0 -99.0-99.00 -99.0 -99.0 -99.0 -99.0 -99.0  -99.
   30.-99.00 -99.0 -99.0 -99.0 -99.0 -99.0 -99.0 -99.0 -99.0 -99.0-99.00 -99.0 -99.0 -99.0 -99.0 -99.0  -99.
   45.-99.00 -99.0 -99.0 -99.0 -99.0 -99.0 -99.0 -99.0 -99.0 -99.0-99.00 -99.0 -99.0 -99.0 -99.0 -99.0  -99.
   60.-99.00 -99.0 -99.0 -99.0 -99.0 -99.0 -99.0 -99.0 -99.0 -99.0-99.00 -99.0 -99.0 -99.0 -99.0 -99.0  -99.
   90.-99.00 -99.0 -99.0 -99.0 -99.0 -99.0 -99.0 -99.0 -99.0 -99.0-99.00 -99.0 -99.0 -99.0 -99.0 -99.0  -99.
  120.-99.00 -99.0 -99.0 -99.0 -99.0 -99.0 -99.0 -99.0 -99.0 -99.0-99.00 -99.0 -99.0 -99.0 -99.0 -99.0  -99.
  150.-99.00 -99.0 -99.0 -99.0 -99.0 -99.0 -99.0 -99.0 -99.0 -99.0-99.00 -99.0 -99.0 -99.0 -99.0 -99.0  -99.
                    
    5.-99.00-99.00-99.00-99.00
   15.-99.00-99.00-99.00-99.00
   30.-99.00-99.00-99.00-99.00
   45.-99.00-99.00-99.00-99.00
   60.-99.00-99.00-99.00-99.00
   90.-99.00-99.00-99.00-99.00
  120.-99.00-99.00-99.00-99.00
  150.-99.00-99.00-99.00-99.00
*CULTIVAR           
PC0002 2600-2650 GDD    IB0001  185.0 0.750 850.0 800.0  8.50 49.00
