*EXP.DETAILS: UNME2015

*GENERAL
@PEOPLE
-99
@ADDRESS
-99
@SITE
-99

*TREATMENTS                        -------------FACTOR LEVELS------------
@N R O C TNAME.................... CU FL SA IC MP MI MF MR MC MT ME MH SM
 1 1 1 0 Sim                        1  1  0  1  1  1  1  1  0  1  0  1  1

*CULTIVARS
@C CR INGENO CNAME
 1 MZ PC0002 2600-2650 GDD

*FIELDS
@L ID_FIELD WSTA....  FLSA  FLOB  FLDT  FLDD  FLDS  FLST SLTX  SLDP  ID_SOIL    FLNAME
 1 UNME0001 UNME1501   -99   -99   -99   -99   -99   -99  -99   -99  IB00000005 -99
@L ...........XCRD ...........YCRD .....ELEV .............AREA .SLEN .FLWR .SLAS FLHST FHDUR
 1             -99             -99       -99               -99   -99   -99   -99   -99   -99

*INITIAL CONDITIONS
@C   PCR ICDAT  ICRT  ICND  ICRN  ICRE  ICWD ICRES ICREN ICREP ICRIP ICRID ICNAME
 1    MZ 15060   200   -99     1     1   -99   -99   -99   -99   -99   -99 -99
@C  ICBL  SH2O  SNH4  SNO3
 1   10  0.21  0.1  0.9
 1   20  0.21  0.1  0.9
 1   41  0.24  0.1  0.9
 1   71  0.31  0.1  0.9
 1  101  0.32  0.1  0.9
 1  126  0.28  0.1  0.9
 1  151  0.28  0.1  0.9

*PLANTING DETAILS
@P PDATE EDATE  PPOP  PPOE  PLME  PLDS  PLRS  PLRD  PLDP  PLWT  PAGE  PENV  PLPH  SPRL                        PLNAME
 1 15121  -99   10.0   10.0    S     R    75    0    5    -99   -99   -99   -99   -99                      -99

*IRRIGATION AND WATER MANAGEMENT
@I  EFIR  IDEP  ITHR  IEPT  IOFF  IAME  IAMT IRNAME
 1     1    30    50   100 GS000 IR004    10 -99
@I IDATE  IROP IRVAL
 1 15182 IR004    0

*FERTILIZERS (INORGANIC)
@F FDATE  FMCD  FACD  FDEP  FAMN  FAMP  FAMK  FAMC  FAMO  FOCD FERNAME
 1 15121 FE004 AP003     5   150     0     0   -99   -99   -99 -99

*RESIDUES AND ORGANIC FERTILIZER
@R RDATE  RCOD  RAMT  RESN  RESP  RESK  RINP  RDEP  RMET RENAME
 1 15121 RE003     0     1     0     0   -99   -99 AP004 -99

*CHEMICAL APPLICATIONS
@C CDATE CHCOD CHAMT  CHME CHDEP   CHT..CHNAME
 1 15105 CH009    10 AP006 10   -99  -99

*TILLAGE AND ROTATIONS
@T TDATE TIMPL  TDEP TNAME
 1 15105 TI011    10  -99

*HARVEST DETAILS
@H HDATE  HSTG  HCOM HSIZE   HPC  HBPC HNAME
 1 15288 GS000     H   -99   -99   -99 Maize

*SIMULATION CONTROLS
@N GENERAL     NYERS NREPS START SDATE RSEED SNAME.................... SMODEL
 1 GE              1     1     S 15091  2150 DEFAULT
@N OPTIONS     WATER NITRO SYMBI PHOSP POTAS DISES  CHEM  TILL   CO2
 1 OP              Y     Y     N     N     N     N     N     Y     D
@N METHODS     WTHER INCON LIGHT EVAPO INFIL PHOTO HYDRO NSWIT MESOM MESEV MESOL
 1 ME              M     M     E     R     S     C     R     1     G     S     2
@N MANAGEMENT  PLANT IRRIG FERTI RESID HARVS
 1 MA              R     F     R     R     R
@N OUTPUTS     FNAME OVVEW SUMRY FROPT GROUT CAOUT WAOUT NIOUT MIOUT DIOUT VBOSE CHOUT OPOUT
 1 OU              N     Y     Y     1     Y     Y     Y     Y     Y     Y     Y     Y     Y

@  AUTOMATIC MANAGEMENT
@N PLANTING    PFRST PLAST PH2OL PH2OU PH2OD PSTMX PSTMN
 1 PL            001   001    40   100    30    40    10
@N IRRIGATION  IMDEP ITHRL ITHRU IROFF IMETH IRAMT IREFF
 1 IR             30    50   100 GS000 IR004    25     1
@N NITROGEN    NMDEP NMTHR NAMNT NCODE NAOFF
 1 NI             30    50    25 FE001 GS000
@N RESIDUES    RIPCN RTIME RIDEP
 1 RE            100     1    20
@N HARVEST     HFRST HLAST HPCNP HPCNR
 1 HA              0   001   100     0
